  Page 1                                    Sat Feb 28 23:07:09 2026

  ******************************************************************
  *                           E P A N E T                          *
  *                   Hydraulic and Water Quality                  *
  *                   Analysis for Pipe Networks                   *
  *                         Version 2.2                            *
  ******************************************************************
  
  Analysis begun Sat Feb 28 23:07:09 2026

   
  Hydraulic Status:
  -----------------------------------------------------------------------
     0:00:00: Balanced after 5 trials
     0:00:00: Reservoir River is emptying
     0:00:00: Reservoir Lake is closed
     0:00:00: Tank 1 is filling at 13.10 ft
     0:00:00: Tank 2 is emptying at 23.50 ft
     0:00:00: Tank 3 is filling at 29.00 ft
   
     1:00:00: Pump 10 changed by timer control
     1:00:00: Balanced after 7 trials
     1:00:00: Reservoir Lake is emptying
     1:00:00: Pump 10 changed from closed to open
   
     2:00:00: Balanced after 3 trials
     2:00:00: Tank 2 is filling at 20.72 ft
   
     3:00:00: Balanced after 2 trials
   
     4:00:00: Balanced after 3 trials
   
     4:24:41: Pump 335 changed by Tank 1 control
     4:24:41: Pipe 330 changed by Tank 1 control
     4:24:41: Balanced after 4 trials
     4:24:41: Pipe 330 changed from closed to open
     4:24:41: Pump 335 changed from open to closed
   
     5:00:00: Balanced after 3 trials
     5:00:00: Tank 3 is emptying at 34.32 ft
   
     6:00:00: Balanced after 3 trials
     6:00:00: Tank 3 is filling at 34.06 ft
   
     7:00:00: Balanced after 3 trials
   
     8:00:00: Balanced after 2 trials
   
     9:00:00: Balanced after 3 trials
     9:00:00: Tank 1 is emptying at 21.75 ft
     9:00:00: Tank 3 is emptying at 34.90 ft
   
    10:00:00: Balanced after 2 trials
   
    11:00:00: Balanced after 3 trials
    11:00:00: Tank 2 is emptying at 27.31 ft
   
    12:00:00: Balanced after 2 trials
   
    13:00:00: Balanced after 3 trials
    13:00:00: Tank 2 is filling at 27.15 ft
   
    14:00:00: Balanced after 3 trials
    14:00:00: Tank 1 is filling at 21.04 ft
   
    15:00:00: Pump 10 changed by timer control
    15:00:00: Balanced after 5 trials
    15:00:00: Reservoir Lake is closed
    15:00:00: Tank 1 is emptying at 21.24 ft
    15:00:00: Tank 2 is emptying at 27.61 ft
    15:00:00: Pump 10 changed from open to closed
   
    16:00:00: Balanced after 3 trials
   
    17:00:00: Balanced after 2 trials
   
    18:00:00: Balanced after 3 trials
   
    19:00:00: Balanced after 2 trials
   
    19:50:33: Pump 335 changed by Tank 1 control
    19:50:33: Pipe 330 changed by Tank 1 control
    19:50:33: Balanced after 6 trials
    19:50:33: Tank 1 is filling at 17.10 ft
    19:50:33: Tank 2 is filling at 26.48 ft
    19:50:33: Tank 3 is filling at 29.79 ft
    19:50:33: Pipe 330 changed from open to closed
    19:50:33: Pump 335 changed from closed to open
   
    20:00:00: Balanced after 3 trials
    20:00:00: Tank 2 is emptying at 26.52 ft
   
    21:00:00: Balanced after 3 trials
   
    22:00:00: Balanced after 3 trials
    22:00:00: Tank 1 is emptying at 17.74 ft
   
    23:00:00: Balanced after 3 trials
   
    24:00:00: Balanced after 4 trials
    24:00:00: Tank 1 is filling at 16.18 ft
   
    25:00:00: Pump 10 changed by timer control
    25:00:00: Balanced after 7 trials
    25:00:00: Reservoir Lake is emptying
    25:00:00: Pump 10 changed from closed to open
   
    26:00:00: Balanced after 3 trials
    26:00:00: Tank 2 is filling at 21.67 ft
   
    26:49:56: Pump 335 changed by Tank 1 control
    26:49:56: Pipe 330 changed by Tank 1 control
    26:49:56: Balanced after 4 trials
    26:49:56: Tank 3 is emptying at 35.24 ft
    26:49:56: Pipe 330 changed from closed to open
    26:49:56: Pump 335 changed from open to closed
   
    27:00:00: Balanced after 2 trials
   
    28:00:00: Balanced after 3 trials
    28:00:00: Tank 3 is filling at 34.81 ft
   
    29:00:00: Balanced after 3 trials
    29:00:00: Tank 3 is emptying at 34.94 ft
   
    30:00:00: Balanced after 3 trials
    30:00:00: Tank 3 is filling at 34.69 ft
   
    31:00:00: Balanced after 3 trials
   
    32:00:00: Balanced after 2 trials
   
    32:57:57: Balanced after 5 trials
    32:57:57: Tank 3 is closed at 35.50 ft
    32:57:57: Pipe 20 changed from open to temporarily closed
   
    33:00:00: Balanced after 6 trials
    33:00:00: Tank 1 is emptying at 22.47 ft
    33:00:00: Tank 3 is emptying at 35.50 ft
    33:00:00: Pipe 20 changed from temporarily closed to open
   
    34:00:00: Balanced after 2 trials
   
    35:00:00: Balanced after 3 trials
    35:00:00: Tank 2 is emptying at 27.96 ft
   
    36:00:00: Balanced after 2 trials
   
    37:00:00: Balanced after 3 trials
    37:00:00: Tank 2 is filling at 27.77 ft
   
    38:00:00: Balanced after 3 trials
    38:00:00: Tank 1 is filling at 21.60 ft
   
    39:00:00: Pump 10 changed by timer control
    39:00:00: Balanced after 5 trials
    39:00:00: Reservoir Lake is closed
    39:00:00: Tank 1 is emptying at 21.80 ft
    39:00:00: Tank 2 is emptying at 28.21 ft
    39:00:00: Pump 10 changed from open to closed
   
    40:00:00: Balanced after 3 trials
   
    41:00:00: Balanced after 2 trials
   
    42:00:00: Balanced after 3 trials
   
    43:00:00: Balanced after 2 trials
   
    44:00:00: Balanced after 3 trials
   
    44:31:17: Pump 335 changed by Tank 1 control
    44:31:17: Pipe 330 changed by Tank 1 control
    44:31:17: Balanced after 5 trials
    44:31:17: Tank 1 is filling at 17.10 ft
    44:31:17: Tank 3 is filling at 29.86 ft
    44:31:17: Pipe 330 changed from open to closed
    44:31:17: Pump 335 changed from closed to open
   
    45:00:00: Balanced after 3 trials
   
    46:00:00: Balanced after 3 trials
    46:00:00: Tank 1 is emptying at 17.43 ft
   
    47:00:00: Balanced after 3 trials
   
    48:00:00: Balanced after 4 trials
    48:00:00: Tank 1 is filling at 15.84 ft
   
    49:00:00: Pump 10 changed by timer control
    49:00:00: Balanced after 8 trials
    49:00:00: Reservoir Lake is emptying
    49:00:00: Pump 10 changed from closed to open
   
    50:00:00: Balanced after 3 trials
    50:00:00: Tank 2 is filling at 21.39 ft
   
    51:00:00: Balanced after 2 trials
   
    51:03:27: Pump 335 changed by Tank 1 control
    51:03:27: Pipe 330 changed by Tank 1 control
    51:03:27: Balanced after 4 trials
    51:03:27: Tank 3 is emptying at 35.06 ft
    51:03:27: Pipe 330 changed from closed to open
    51:03:27: Pump 335 changed from open to closed
   
    52:00:00: Balanced after 3 trials
    52:00:00: Tank 3 is filling at 34.72 ft
   
    53:00:00: Balanced after 3 trials
    53:00:00: Tank 3 is emptying at 34.85 ft
   
    54:00:00: Balanced after 3 trials
    54:00:00: Tank 3 is filling at 34.60 ft
   
    55:00:00: Balanced after 3 trials
   
    56:00:00: Balanced after 2 trials
   
    57:00:00: Balanced after 3 trials
    57:00:00: Tank 1 is emptying at 22.35 ft
    57:00:00: Tank 3 is emptying at 35.42 ft
   
    58:00:00: Balanced after 2 trials
   
    59:00:00: Balanced after 3 trials
    59:00:00: Tank 2 is emptying at 27.84 ft
   
    60:00:00: Balanced after 2 trials
   
    61:00:00: Balanced after 3 trials
    61:00:00: Tank 2 is filling at 27.66 ft
   
    62:00:00: Balanced after 3 trials
    62:00:00: Tank 1 is filling at 21.52 ft
   
    63:00:00: Pump 10 changed by timer control
    63:00:00: Balanced after 5 trials
    63:00:00: Reservoir Lake is closed
    63:00:00: Tank 1 is emptying at 21.72 ft
    63:00:00: Tank 2 is emptying at 28.11 ft
    63:00:00: Pump 10 changed from open to closed
   
    64:00:00: Balanced after 3 trials
   
    65:00:00: Balanced after 2 trials
   
    66:00:00: Balanced after 3 trials
   
    67:00:00: Balanced after 2 trials
   
    68:00:00: Balanced after 3 trials
   
    68:25:51: Pump 335 changed by Tank 1 control
    68:25:51: Pipe 330 changed by Tank 1 control
    68:25:51: Balanced after 5 trials
    68:25:51: Tank 1 is filling at 17.10 ft
    68:25:51: Tank 3 is filling at 29.85 ft
    68:25:51: Pipe 330 changed from open to closed
    68:25:51: Pump 335 changed from closed to open
   
    69:00:00: Balanced after 3 trials
   
    70:00:00: Balanced after 3 trials
    70:00:00: Tank 1 is emptying at 17.47 ft
   
    71:00:00: Balanced after 3 trials
   
    72:00:00: Balanced after 4 trials
    72:00:00: Tank 1 is filling at 15.88 ft
   
    73:00:00: Pump 10 changed by timer control
    73:00:00: Balanced after 8 trials
    73:00:00: Reservoir Lake is emptying
    73:00:00: Pump 10 changed from closed to open
   
    74:00:00: Balanced after 3 trials
    74:00:00: Tank 2 is filling at 21.42 ft
   
    75:00:00: Balanced after 2 trials
   
    75:01:43: Pump 335 changed by Tank 1 control
    75:01:43: Pipe 330 changed by Tank 1 control
    75:01:43: Balanced after 4 trials
    75:01:43: Tank 3 is emptying at 35.08 ft
    75:01:43: Pipe 330 changed from closed to open
    75:01:43: Pump 335 changed from open to closed
   
    76:00:00: Balanced after 3 trials
    76:00:00: Tank 3 is filling at 34.73 ft
   
    77:00:00: Balanced after 3 trials
    77:00:00: Tank 3 is emptying at 34.86 ft
   
    78:00:00: Balanced after 3 trials
    78:00:00: Tank 3 is filling at 34.61 ft
   
    79:00:00: Balanced after 3 trials
   
    80:00:00: Balanced after 2 trials
   
    81:00:00: Balanced after 3 trials
    81:00:00: Tank 1 is emptying at 22.36 ft
    81:00:00: Tank 3 is emptying at 35.43 ft
   
    82:00:00: Balanced after 2 trials
   
    83:00:00: Balanced after 3 trials
    83:00:00: Tank 2 is emptying at 27.85 ft
   
    84:00:00: Balanced after 2 trials
   
    85:00:00: Balanced after 3 trials
    85:00:00: Tank 2 is filling at 27.67 ft
   
    86:00:00: Balanced after 3 trials
    86:00:00: Tank 1 is filling at 21.53 ft
   
    87:00:00: Pump 10 changed by timer control
    87:00:00: Balanced after 5 trials
    87:00:00: Reservoir Lake is closed
    87:00:00: Tank 1 is emptying at 21.73 ft
    87:00:00: Tank 2 is emptying at 28.12 ft
    87:00:00: Pump 10 changed from open to closed
   
    88:00:00: Balanced after 3 trials
   
    89:00:00: Balanced after 2 trials
   
    90:00:00: Balanced after 3 trials
   
    91:00:00: Balanced after 2 trials
   
    92:00:00: Balanced after 3 trials
   
    92:26:30: Pump 335 changed by Tank 1 control
    92:26:30: Pipe 330 changed by Tank 1 control
    92:26:30: Balanced after 5 trials
    92:26:30: Tank 1 is filling at 17.10 ft
    92:26:30: Tank 3 is filling at 29.85 ft
    92:26:30: Pipe 330 changed from open to closed
    92:26:30: Pump 335 changed from closed to open
   
    93:00:00: Balanced after 3 trials
   
    94:00:00: Balanced after 3 trials
    94:00:00: Tank 1 is emptying at 17.47 ft
   
    95:00:00: Balanced after 3 trials
   
    96:00:00: Balanced after 4 trials
    96:00:00: Tank 1 is filling at 15.87 ft
   
    97:00:00: Pump 10 changed by timer control
    97:00:00: Balanced after 8 trials
    97:00:00: Reservoir Lake is emptying
    97:00:00: Pump 10 changed from closed to open
   
    98:00:00: Balanced after 3 trials
    98:00:00: Tank 2 is filling at 21.42 ft
   
    99:00:00: Balanced after 2 trials
   
    99:01:55: Pump 335 changed by Tank 1 control
    99:01:55: Pipe 330 changed by Tank 1 control
    99:01:55: Balanced after 4 trials
    99:01:55: Tank 3 is emptying at 35.08 ft
    99:01:55: Pipe 330 changed from closed to open
    99:01:55: Pump 335 changed from open to closed
   
   100:00:00: Balanced after 3 trials
   100:00:00: Tank 3 is filling at 34.73 ft
   
   101:00:00: Balanced after 3 trials
   101:00:00: Tank 3 is emptying at 34.86 ft
   
   102:00:00: Balanced after 3 trials
   102:00:00: Tank 3 is filling at 34.61 ft
   
   103:00:00: Balanced after 3 trials
   
   104:00:00: Balanced after 2 trials
   
   105:00:00: Balanced after 3 trials
   105:00:00: Tank 1 is emptying at 22.36 ft
   105:00:00: Tank 3 is emptying at 35.43 ft
   
   106:00:00: Balanced after 2 trials
   
   107:00:00: Balanced after 3 trials
   107:00:00: Tank 2 is emptying at 27.85 ft
   
   108:00:00: Balanced after 2 trials
   
   109:00:00: Balanced after 3 trials
   109:00:00: Tank 2 is filling at 27.67 ft
   
   110:00:00: Balanced after 3 trials
   110:00:00: Tank 1 is filling at 21.53 ft
   
   111:00:00: Pump 10 changed by timer control
   111:00:00: Balanced after 5 trials
   111:00:00: Reservoir Lake is closed
   111:00:00: Tank 1 is emptying at 21.73 ft
   111:00:00: Tank 2 is emptying at 28.12 ft
   111:00:00: Pump 10 changed from open to closed
   
   112:00:00: Balanced after 3 trials
   
   113:00:00: Balanced after 2 trials
   
   114:00:00: Balanced after 3 trials
   
   115:00:00: Balanced after 2 trials
   
   116:00:00: Balanced after 3 trials
   
   116:26:25: Pump 335 changed by Tank 1 control
   116:26:25: Pipe 330 changed by Tank 1 control
   116:26:25: Balanced after 5 trials
   116:26:25: Tank 1 is filling at 17.10 ft
   116:26:25: Tank 3 is filling at 29.85 ft
   116:26:25: Pipe 330 changed from open to closed
   116:26:25: Pump 335 changed from closed to open
   
   117:00:00: Balanced after 3 trials
   
   118:00:00: Balanced after 3 trials
   118:00:00: Tank 1 is emptying at 17.47 ft
   
   119:00:00: Balanced after 3 trials
   
   120:00:00: Balanced after 4 trials
   120:00:00: Tank 1 is filling at 15.87 ft
   
   121:00:00: Pump 10 changed by timer control
   121:00:00: Balanced after 8 trials
   121:00:00: Reservoir Lake is emptying
   121:00:00: Pump 10 changed from closed to open
   
   122:00:00: Balanced after 3 trials
   122:00:00: Tank 2 is filling at 21.42 ft
   
   123:00:00: Balanced after 2 trials
   
   123:01:54: Pump 335 changed by Tank 1 control
   123:01:54: Pipe 330 changed by Tank 1 control
   123:01:54: Balanced after 4 trials
   123:01:54: Tank 3 is emptying at 35.08 ft
   123:01:54: Pipe 330 changed from closed to open
   123:01:54: Pump 335 changed from open to closed
   
   124:00:00: Balanced after 3 trials
   124:00:00: Tank 3 is filling at 34.73 ft
   
   125:00:00: Balanced after 3 trials
   125:00:00: Tank 3 is emptying at 34.86 ft
   
   126:00:00: Balanced after 3 trials
   126:00:00: Tank 3 is filling at 34.61 ft
   
   127:00:00: Balanced after 3 trials
   
   128:00:00: Balanced after 2 trials
   
   129:00:00: Balanced after 3 trials
   129:00:00: Tank 1 is emptying at 22.36 ft
   129:00:00: Tank 3 is emptying at 35.43 ft
   
   130:00:00: Balanced after 2 trials
   
   131:00:00: Balanced after 3 trials
   131:00:00: Tank 2 is emptying at 27.85 ft
   
   132:00:00: Balanced after 2 trials
   
   133:00:00: Balanced after 3 trials
   133:00:00: Tank 2 is filling at 27.67 ft
   
   134:00:00: Balanced after 3 trials
   134:00:00: Tank 1 is filling at 21.53 ft
   
   135:00:00: Pump 10 changed by timer control
   135:00:00: Balanced after 5 trials
   135:00:00: Reservoir Lake is closed
   135:00:00: Tank 1 is emptying at 21.73 ft
   135:00:00: Tank 2 is emptying at 28.12 ft
   135:00:00: Pump 10 changed from open to closed
   
   136:00:00: Balanced after 3 trials
   
   137:00:00: Balanced after 2 trials
   
   138:00:00: Balanced after 3 trials
   
   139:00:00: Balanced after 2 trials
   
   140:00:00: Balanced after 3 trials
   
   140:26:27: Pump 335 changed by Tank 1 control
   140:26:27: Pipe 330 changed by Tank 1 control
   140:26:27: Balanced after 5 trials
   140:26:27: Tank 1 is filling at 17.10 ft
   140:26:27: Tank 3 is filling at 29.85 ft
   140:26:27: Pipe 330 changed from open to closed
   140:26:27: Pump 335 changed from closed to open
   
   141:00:00: Balanced after 3 trials
   
   142:00:00: Balanced after 3 trials
   142:00:00: Tank 1 is emptying at 17.47 ft
   
   143:00:00: Balanced after 3 trials
   
   144:00:00: Balanced after 4 trials
   144:00:00: Tank 1 is filling at 15.87 ft
   
   145:00:00: Pump 10 changed by timer control
   145:00:00: Balanced after 8 trials
   145:00:00: Reservoir Lake is emptying
   145:00:00: Pump 10 changed from closed to open
   
   146:00:00: Balanced after 3 trials
   146:00:00: Tank 2 is filling at 21.42 ft
   
   147:00:00: Balanced after 2 trials
   
   147:01:55: Pump 335 changed by Tank 1 control
   147:01:55: Pipe 330 changed by Tank 1 control
   147:01:55: Balanced after 4 trials
   147:01:55: Tank 3 is emptying at 35.08 ft
   147:01:55: Pipe 330 changed from closed to open
   147:01:55: Pump 335 changed from open to closed
   
   148:00:00: Balanced after 3 trials
   148:00:00: Tank 3 is filling at 34.73 ft
   
   149:00:00: Balanced after 3 trials
   149:00:00: Tank 3 is emptying at 34.86 ft
   
   150:00:00: Balanced after 3 trials
   150:00:00: Tank 3 is filling at 34.61 ft
   
   151:00:00: Balanced after 3 trials
   
   152:00:00: Balanced after 2 trials
   
   153:00:00: Balanced after 3 trials
   153:00:00: Tank 1 is emptying at 22.36 ft
   153:00:00: Tank 3 is emptying at 35.43 ft
   
   154:00:00: Balanced after 2 trials
   
   155:00:00: Balanced after 3 trials
   155:00:00: Tank 2 is emptying at 27.85 ft
   
   156:00:00: Balanced after 2 trials
   
   157:00:00: Balanced after 3 trials
   157:00:00: Tank 2 is filling at 27.67 ft
   
   158:00:00: Balanced after 3 trials
   158:00:00: Tank 1 is filling at 21.53 ft
   
   159:00:00: Pump 10 changed by timer control
   159:00:00: Balanced after 5 trials
   159:00:00: Reservoir Lake is closed
   159:00:00: Tank 1 is emptying at 21.73 ft
   159:00:00: Tank 2 is emptying at 28.12 ft
   159:00:00: Pump 10 changed from open to closed
   
   160:00:00: Balanced after 3 trials
   
   161:00:00: Balanced after 2 trials
   
   162:00:00: Balanced after 3 trials
   
   163:00:00: Balanced after 2 trials
   
   164:00:00: Balanced after 3 trials
   
   164:26:27: Pump 335 changed by Tank 1 control
   164:26:27: Pipe 330 changed by Tank 1 control
   164:26:27: Balanced after 5 trials
   164:26:27: Tank 1 is filling at 17.10 ft
   164:26:27: Tank 3 is filling at 29.85 ft
   164:26:27: Pipe 330 changed from open to closed
   164:26:27: Pump 335 changed from closed to open
   
   165:00:00: Balanced after 3 trials
   
   166:00:00: Balanced after 3 trials
   166:00:00: Tank 1 is emptying at 17.47 ft
   
   167:00:00: Balanced after 3 trials
   
   168:00:00: Balanced after 4 trials
   168:00:00: Tank 1 is filling at 15.87 ft
   
  Water Quality Mass Balance (mg)
  ================================
  Initial Mass:      0.00000e+000
  Mass Inflow:       2.60296e+008
  Mass Outflow:      2.53049e+008
  Mass Reacted:      0.00000e+000
  Final Mass:        7.24745e+006
  Mass Ratio:         1.00000
  ================================

  Analysis ended Sat Feb 28 23:07:09 2026
