  Page 1                                    Sat Feb 28 21:06:32 2026

  ******************************************************************
  *                           E P A N E T                          *
  *                   Hydraulic and Water Quality                  *
  *                   Analysis for Pipe Networks                   *
  *                         Version 2.2                            *
  ******************************************************************
  
  Analysis begun Sat Feb 28 21:06:32 2026

  WARNING: Pump PUMP-3867 open but exceeds maximum flow at 64:45:58 hrs.
   
  WARNING: Pump PUMP-3867 open but exceeds maximum flow at 76:23:03 hrs.
   
  WARNING: Pump PUMP-3867 open but exceeds maximum flow at 88:51:54 hrs.
   
  Analysis ended Sat Feb 28 21:06:34 2026
