  Page 1                                    Sat Feb 28 19:12:10 2026

  ******************************************************************
  *                           E P A N E T                          *
  *                   Hydraulic and Water Quality                  *
  *                   Analysis for Pipe Networks                   *
  *                         Version 2.2                            *
  ******************************************************************
  
  Analysis begun Sat Feb 28 19:12:10 2026

   
  Hydraulic Status:
  -----------------------------------------------------------------------
     0:00:00: Balanced after 5 trials
     0:00:00: Reservoir River is emptying
     0:00:00: Reservoir Lake is closed
     0:00:00: Tank 1 is filling at 13.10 ft
     0:00:00: Tank 2 is emptying at 23.50 ft
     0:00:00: Tank 3 is filling at 29.00 ft
   
     1:00:00: Pump 10 changed by timer control
     1:00:00: Balanced after 7 trials
     1:00:00: Reservoir Lake is emptying
     1:00:00: Pump 10 changed from closed to open
   
     2:00:00: Balanced after 3 trials
     2:00:00: Tank 2 is filling at 20.74 ft
   
     3:00:00: Balanced after 2 trials
   
     4:00:00: Balanced after 3 trials
   
     4:23:40: Pump 335 changed by Tank 1 control
     4:23:40: Pipe 330 changed by Tank 1 control
     4:23:40: Balanced after 4 trials
     4:23:40: Pipe 330 changed from closed to open
     4:23:40: Pump 335 changed from open to closed
   
     5:00:00: Balanced after 3 trials
     5:00:00: Tank 3 is emptying at 34.27 ft
   
     6:00:00: Balanced after 3 trials
     6:00:00: Tank 3 is filling at 34.01 ft
   
     7:00:00: Balanced after 3 trials
   
     8:00:00: Balanced after 2 trials
   
     9:00:00: Balanced after 3 trials
     9:00:00: Tank 1 is emptying at 21.75 ft
     9:00:00: Tank 3 is emptying at 34.84 ft
   
    10:00:00: Balanced after 2 trials
   
    11:00:00: Balanced after 3 trials
    11:00:00: Tank 2 is emptying at 27.31 ft
   
    12:00:00: Balanced after 2 trials
   
    13:00:00: Balanced after 3 trials
    13:00:00: Tank 2 is filling at 27.14 ft
   
    14:00:00: Balanced after 3 trials
    14:00:00: Tank 1 is filling at 21.02 ft
   
    15:00:00: Pump 10 changed by timer control
    15:00:00: Balanced after 5 trials
    15:00:00: Reservoir Lake is closed
    15:00:00: Tank 1 is emptying at 21.23 ft
    15:00:00: Tank 2 is emptying at 27.60 ft
    15:00:00: Pump 10 changed from open to closed
   
    16:00:00: Balanced after 3 trials
   
    17:00:00: Balanced after 2 trials
   
    18:00:00: Balanced after 3 trials
   
    19:00:00: Balanced after 2 trials
   
    19:58:38: Pump 335 changed by Tank 1 control
    19:58:38: Pipe 330 changed by Tank 1 control
    19:58:38: Balanced after 6 trials
    19:58:38: Tank 1 is filling at 17.10 ft
    19:58:38: Tank 2 is filling at 26.52 ft
    19:58:38: Tank 3 is filling at 29.62 ft
    19:58:38: Pipe 330 changed from open to closed
    19:58:38: Pump 335 changed from closed to open
   
    20:00:00: Balanced after 3 trials
    20:00:00: Tank 2 is emptying at 26.52 ft
   
    21:00:00: Balanced after 3 trials
   
    22:00:00: Balanced after 3 trials
    22:00:00: Tank 1 is emptying at 17.69 ft
   
    23:00:00: Balanced after 3 trials
   
    24:00:00: Balanced after 4 trials
    24:00:00: Tank 1 is filling at 16.14 ft
   
    25:00:00: Pump 10 changed by timer control
    25:00:00: Balanced after 7 trials
    25:00:00: Reservoir Lake is emptying
    25:00:00: Pump 10 changed from closed to open
   
    26:00:00: Balanced after 3 trials
    26:00:00: Tank 2 is filling at 21.61 ft
   
    26:52:24: Pump 335 changed by Tank 1 control
    26:52:24: Pipe 330 changed by Tank 1 control
    26:52:24: Balanced after 4 trials
    26:52:24: Tank 3 is emptying at 34.99 ft
    26:52:24: Pipe 330 changed from closed to open
    26:52:24: Pump 335 changed from open to closed
   
    27:00:00: Balanced after 2 trials
   
    28:00:00: Balanced after 3 trials
    28:00:00: Tank 3 is filling at 34.59 ft
   
    29:00:00: Balanced after 3 trials
    29:00:00: Tank 3 is emptying at 34.74 ft
   
    30:00:00: Balanced after 3 trials
    30:00:00: Tank 3 is filling at 34.49 ft
   
    31:00:00: Balanced after 3 trials
   
    32:00:00: Balanced after 2 trials
   
    33:00:00: Balanced after 3 trials
    33:00:00: Tank 1 is emptying at 22.33 ft
    33:00:00: Tank 3 is emptying at 35.33 ft
   
    34:00:00: Balanced after 2 trials
   
    35:00:00: Balanced after 3 trials
    35:00:00: Tank 2 is emptying at 27.84 ft
   
    36:00:00: Balanced after 2 trials
   
    37:00:00: Balanced after 3 trials
    37:00:00: Tank 2 is filling at 27.65 ft
   
    38:00:00: Balanced after 3 trials
    38:00:00: Tank 1 is filling at 21.48 ft
   
    39:00:00: Pump 10 changed by timer control
    39:00:00: Balanced after 5 trials
    39:00:00: Reservoir Lake is closed
    39:00:00: Tank 1 is emptying at 21.68 ft
    39:00:00: Tank 2 is emptying at 28.09 ft
    39:00:00: Pump 10 changed from open to closed
   
    40:00:00: Balanced after 3 trials
   
    41:00:00: Balanced after 2 trials
   
    42:00:00: Balanced after 3 trials
   
    43:00:00: Balanced after 2 trials
   
    44:00:00: Balanced after 3 trials
   
    44:30:30: Pump 335 changed by Tank 1 control
    44:30:30: Pipe 330 changed by Tank 1 control
    44:30:30: Balanced after 5 trials
    44:30:30: Tank 1 is filling at 17.10 ft
    44:30:30: Tank 3 is filling at 29.67 ft
    44:30:30: Pipe 330 changed from open to closed
    44:30:30: Pump 335 changed from closed to open
   
    45:00:00: Balanced after 3 trials
   
    46:00:00: Balanced after 3 trials
    46:00:00: Tank 1 is emptying at 17.46 ft
   
    47:00:00: Balanced after 3 trials
   
    48:00:00: Balanced after 4 trials
    48:00:00: Tank 1 is filling at 15.89 ft
   
  Water Quality Mass Balance (mg)
  ================================
  Initial Mass:      0.00000e+000
  Mass Inflow:       7.41828e+007
  Mass Outflow:      6.88010e+007
  Mass Reacted:      0.00000e+000
  Final Mass:        5.38181e+006
  Mass Ratio:         1.00000
  ================================

  Analysis ended Sat Feb 28 19:12:10 2026
