  Page 1                                    Sat Feb 28 21:15:27 2026

  ******************************************************************
  *                           E P A N E T                          *
  *                   Hydraulic and Water Quality                  *
  *                   Analysis for Pipe Networks                   *
  *                         Version 2.2                            *
  ******************************************************************
  
  Analysis begun Sat Feb 28 21:15:27 2026

  WARNING: Pump PUMP-3867 open but exceeds maximum flow at 64:44:28 hrs.
   
  WARNING: Pump PUMP-3867 open but exceeds maximum flow at 76:22:10 hrs.
   
  WARNING: Pump PUMP-3867 open but exceeds maximum flow at 88:50:42 hrs.
   
  Analysis ended Sat Feb 28 21:15:28 2026
